FoamFile
{
    version 2.0;
    format ascii;
    class dictionary;
    object blockMeshDict;
}
// Flume in the x-z plane (vertical = z), as the ESI waveModels framework
// requires: wave generation BCs measure water level from point z-coordinates.
// y is the 0.1 m "empty" slab direction. SWL at z = 0.
scale 1;
vertices
(
    (-12    0    -0.4)       // 0
    (  0    0    -0.4)       // 1
    (  0    0.1  -0.4)       // 2
    (-12    0.1  -0.4)       // 3
    (-12    0     0.4)       // 4
    (  0    0     0.4)       // 5
    (  0    0.1   0.4)       // 6
    (-12    0.1   0.4)       // 7
    ( 12.0  0    -0.057143)  // 8  top of 1:35 slope (5.7 cm below SWL)
    ( 12.0  0.1  -0.057143)  // 9
    ( 12.0  0     0.4)       // 10
    ( 12.0  0.1   0.4)       // 11
);
blocks
(
    hex (0 1 2 3 4 5 6 7)   (300 1 60) simpleGrading (1 1 1)
    hex (1 8 9 2 5 10 11 6) (600 1 60) simpleGrading (1 1 1)
);
boundary
(
    inlet      { type patch; faces ((0 4 7 3)); }
    bottom     { type wall;  faces ((0 1 2 3) (1 8 9 2)); }
    atmosphere { type patch; faces ((4 5 6 7) (5 10 11 6)); }
    endWall    { type wall;  faces ((8 9 11 10)); }
    frontAndBack { type empty; faces ((0 1 5 4) (3 2 6 7) (1 8 10 5) (2 9 11 6)); }
);
