FoamFile
{
    version 2.0;
    format ascii;
    class dictionary;
    object controlDict;
}
application     interFoam;
startFrom       latestTime;
startTime       0;
stopAt          endTime;
endTime 16;
deltaT          0.0002;
writeControl    adjustableRunTime;
writeInterval   0.05;
purgeWrite      0;
writeFormat     binary;
writePrecision  6;
writeCompression off;
timeFormat      general;
timePrecision   6;
runTimeModifiable yes;
adjustTimeStep  yes;
maxCo           0.45;
maxAlphaCo      0.45;
maxDeltaT       0.005;


// so utilities (setAlphaField) can parse the wave BCs in 0/
libs            (waveModels);
