FoamFile
{
    version 2.0;
    format ascii;
    class dictionary;
    object waveProperties;
}
inlet
{
    alpha           alpha.water;
    waveModel       cnoidal;
    nPaddle         1;
    waveHeight      0.128;      // Ting & Kirby (1994) plunging case, H
    wavePeriod      5.0;        // T
    waveAngle       0.0;
    rampTime        5.0;
    activeAbsorption yes;
}
